<?xml version="1.0" encoding="UTF-8"?>
<routes xmlns:xsi="http://www.w3.org/2001/XMLSchema-instance" xsi:noNamespaceSchemaLocation="http://sumo.dlr.de/xsd/routes_file.xsd">

    <!-- <vehicle id="car1" type="passenger" depart="0">
        <route edges="0a 1a 4 5 6 7 8"/>
        <stop parkingArea="1" duration="200"/>
    </vehicle> -->
<!-- 
    <vehicle id="car2" type="passenger" depart="0">
        <route edges="0a 1a 4 5 6 7 8 0b"/>
        <stop parkingArea="1" duration="200"/>
    </vehicle>

    <vehicle id="car3" type="passenger" depart="0">
        <route edges="0a 1a 4 5 6 7 8 0b"/>
        <stop parkingArea="1" duration="200"/>
    </vehicle>

    <vehicle id="car4" type="passenger" depart="0">
        <route edges="0a 1a 4 5 6 7 8 0b"/>
        <stop parkingArea="1" duration="200"/>
    </vehicle>

    <vehicle id="car5" type="passenger" depart="0">
        <route edges="0a 1a 4 5 6 7 8 0b"/>
        <stop parkingArea="1" duration="200"/>
    </vehicle>

    <vehicle id="car6" type="passenger" depart="0">
        <route edges="0a 1a 4 5 6 7 8 0b"/>
        <stop parkingArea="1" duration="200"/>
    </vehicle>

    <vehicle id="car7" type="passenger" depart="0">
        <route edges="0a 1a 4 5 6 7 8"/>
        <stop parkingArea="1" duration="200"/>
    </vehicle>
    
    <vehicle id="car8" type="passenger" depart="0">
        <route edges="0a 1a 4 5 6 7 8 0b"/>
        <stop parkingArea="1" duration="200"/>
    </vehicle>

    <vehicle id="car9" type="passenger" depart="0">
        <route edges="0a 1a 4 5 6 7 8 0b"/>
        <stop parkingArea="1" duration="200"/>
    </vehicle>

    <vehicle id="car10" type="passenger" depart="0">
        <route edges="0a 1a 4 5 6 7 8 0b"/>
        <stop parkingArea="1" duration="200"/>
    </vehicle>

    <vehicle id="car11" type="passenger" depart="0">
        <route edges="0a 1a 4 5 6 7 8 0b"/>
        <stop parkingArea="1" duration="200"/>
    </vehicle>

    <vehicle id="car12" type="passenger" depart="0">
        <route edges="0a 1a 4 5 6 7 8 0b"/>
        <stop parkingArea="1" duration="200"/>
    </vehicle>

    <vehicle id="car13" type="passenger" depart="0">
        <route edges="0a 1a 4 5 6 7 8 0b"/>
        <stop parkingArea="1" duration="200"/>
    </vehicle>

    <vehicle id="car14" type="passenger" depart="0">
        <route edges="0a 1a 4 5 6 7 8 0b"/>
        <stop parkingArea="1" duration="200"/>
    </vehicle>

    <vehicle id="car15" type="passenger" depart="0">
        <route edges="0a 1a 4 5 6 7 8 0b"/>
        <stop parkingArea="5" duration="200"/>
    </vehicle> -->









    <!-- <vehicle id="car2" type="passenger" depart="0">
        <route edges="0a 1a 1b 0b"/>
        <stop parkingArea="1" duration="60"/>
        <stop parkingArea="2" duration="60"/>

    </vehicle>

    <vehicle id="car3" type="passenger" depart="0">
        <route edges="1b 0b "/>
        <stop parkingArea="2" duration="60"/>
    </vehicle> -->
</routes>