<?xml version="1.0" encoding="UTF-8"?>

<!-- generated on 04/14/21 14:54:13 by Eclipse SUMO netedit Version 1.8.0
<configuration xmlns:xsi="http://www.w3.org/2001/XMLSchema-instance" xsi:noNamespaceSchemaLocation="http://sumo.dlr.de/xsd/netconvertConfiguration.xsd">

    <input>
        <sumo-net-file value="C:\Users\hp\Desktop\SUMOParking\App\Simulation\Layout.net.xml"/>
    </input>

    <output>
        <output-file value="C:\Users\hp\Desktop\SUMOParking\App\Simulation\Layout.net.xml"/>
    </output>

    <processing>
        <geometry.min-radius.fix.railways value="false"/>
        <geometry.max-grade.fix value="false"/>
        <offset.disable-normalization value="true"/>
        <lefthand value="false"/>
    </processing>

    <junctions>
        <no-internal-links value="true"/>
        <no-turnarounds value="true"/>
        <junctions.corner-detail value="5"/>
        <junctions.limit-turn-speed value="5.5"/>
        <rectangular-lane-cut value="false"/>
    </junctions>

    <pedestrian>
        <walkingareas value="false"/>
    </pedestrian>

    <report>
        <aggregate-warnings value="5"/>
    </report>

</configuration>
-->

<net version="1.6" junctionCornerDetail="5" limitTurnSpeed="5.50" xmlns:xsi="http://www.w3.org/2001/XMLSchema-instance" xsi:noNamespaceSchemaLocation="http://sumo.dlr.de/xsd/net_file.xsd">

    <location netOffset="0.00,0.00" convBoundary="200.00,-900.00,400.00,-720.00" origBoundary="-10000000000.00,-10000000000.00,10000000000.00,10000000000.00" projParameter="!"/>

    <edge id="0a" from="gneJ31" to="1" priority="-1">
        <lane id="0a_0" index="0" speed="13.89" length="30.00" shape="401.60,-830.00 401.60,-807.20"/>
    </edge>
    <edge id="0b" from="1" to="gneJ31" priority="-1">
        <lane id="0b_0" index="0" speed="13.89" length="30.00" shape="398.40,-807.20 398.40,-830.00"/>
    </edge>
    <edge id="1a" from="1" to="5" priority="-1">
        <lane id="1a_0" index="0" speed="13.89" length="70.00" shape="401.60,-796.00 401.60,-737.78"/>
    </edge>
    <edge id="1b" from="5" to="1" priority="-1">
        <lane id="1b_0" index="0" speed="13.89" length="70.00" shape="398.40,-737.78 398.40,-796.00"/>
    </edge>
    <edge id="2a" from="5" to="3" priority="-1">
        <lane id="2a_0" index="0" speed="13.89" length="30.41" shape="392.07,-729.70 372.41,-732.98"/>
    </edge>
    <edge id="2b" from="3" to="5" priority="-1">
        <lane id="2b_0" index="0" speed="13.89" length="30.41" shape="372.94,-736.13 392.59,-732.86"/>
    </edge>
    <edge id="3a" from="3" to="4" priority="-1">
        <lane id="3a_0" index="0" speed="13.89" length="45.00" shape="368.40,-737.71 368.40,-780.00"/>
    </edge>
    <edge id="3b" from="4" to="3" priority="-1">
        <lane id="3b_0" index="0" speed="13.89" length="45.00" shape="371.60,-780.00 371.60,-737.71"/>
    </edge>
    <edge id="4" from="5" to="6" priority="-1">
        <lane id="4_0" index="0" speed="13.89" length="14.14" shape="395.52,-723.26 391.13,-718.87"/>
    </edge>
    <edge id="5" from="6" to="7" priority="-1">
        <lane id="5_0" index="0" speed="13.89" length="40.00" shape="390.00,-718.40 350.00,-718.40"/>
    </edge>
    <edge id="6" from="7" to="8" priority="-1">
        <lane id="6_0" index="0" speed="13.89" length="14.14" shape="348.87,-718.87 338.87,-728.87"/>
    </edge>
    <edge id="7" from="8" to="gneJ23" priority="-1">
        <lane id="7_0" index="0" speed="13.89" length="70.00" shape="338.40,-730.00 338.40,-800.00"/>
    </edge>
    <edge id="8" from="gneJ23" to="1" priority="-1">
        <lane id="8_0" index="0" speed="13.89" length="60.00" shape="340.00,-801.60 392.80,-801.60"/>
    </edge>

    <junction id="1" type="priority" x="400.00" y="-800.00" incLanes="1b_0 0a_0 8_0" intLanes="" shape="396.80,-796.00 403.20,-796.00 403.20,-807.20 396.80,-807.20 396.36,-804.98 395.80,-804.20 395.02,-803.64 394.02,-803.31 392.80,-803.20 392.80,-800.00 395.02,-799.56 395.80,-799.00 396.36,-798.22 396.69,-797.22">
        <request index="0" response="0000" foes="1100"/>
        <request index="1" response="0000" foes="0000"/>
        <request index="2" response="1001" foes="1001"/>
        <request index="3" response="0001" foes="0101"/>
    </junction>
    <junction id="3" type="priority" x="370.00" y="-735.00" incLanes="2a_0 3b_0" intLanes="" shape="372.15,-731.40 373.20,-737.71 366.80,-737.71 367.39,-734.60 368.14,-733.42 369.18,-732.50 370.51,-731.82">
        <request index="0" response="00" foes="00"/>
        <request index="1" response="00" foes="00"/>
    </junction>
    <junction id="4" type="priority" x="370.00" y="-780.00" incLanes="3a_0" intLanes="" shape="370.00,-780.00 366.80,-780.00 370.00,-780.00">
        <request index="0" response="0" foes="0"/>
    </junction>
    <junction id="5" type="priority" x="400.00" y="-730.00" incLanes="1a_0 2b_0" intLanes="" shape="403.20,-737.78 396.80,-737.78 396.36,-735.63 395.81,-734.94 395.05,-734.51 394.06,-734.35 392.85,-734.44 391.80,-728.12 394.50,-727.31 395.16,-726.74 395.36,-726.06 395.10,-725.28 394.39,-724.39 396.65,-722.13 398.65,-724.38 400.29,-726.78 401.56,-729.31 402.47,-731.99 403.02,-734.81">
        <request index="0" response="00000" foes="10000"/>
        <request index="1" response="00000" foes="10000"/>
        <request index="2" response="01000" foes="01000"/>
        <request index="3" response="00000" foes="00100"/>
        <request index="4" response="00011" foes="00011"/>
    </junction>
    <junction id="6" type="priority" x="390.00" y="-720.00" incLanes="4_0" intLanes="" shape="392.26,-717.74 390.00,-720.00 390.00,-716.80 390.84,-716.90 391.23,-717.03 391.59,-717.22 391.94,-717.45">
        <request index="0" response="0" foes="0"/>
    </junction>
    <junction id="7" type="priority" x="350.00" y="-720.00" incLanes="5_0" intLanes="" shape="350.00,-716.80 350.00,-720.00 347.74,-717.74 348.41,-717.22 348.77,-717.03 349.16,-716.90 349.57,-716.83">
        <request index="0" response="0" foes="0"/>
    </junction>
    <junction id="8" type="priority" x="340.00" y="-730.00" incLanes="6_0" intLanes="" shape="337.74,-727.74 340.00,-730.00 336.80,-730.00 336.90,-729.16 337.03,-728.77 337.22,-728.41 337.45,-728.06">
        <request index="0" response="0" foes="0"/>
    </junction>
    <junction id="gneJ23" type="priority" x="340.00" y="-800.00" incLanes="7_0" intLanes="" shape="336.80,-800.00 340.00,-800.00 340.00,-803.20 338.22,-802.84 337.60,-802.40 337.16,-801.78 336.89,-800.98">
        <request index="0" response="0" foes="0"/>
    </junction>
    <junction id="gneJ29" type="dead_end" x="200.00" y="-900.00" incLanes="" intLanes="" shape="200.00,-900.00"/>
    <junction id="gneJ31" type="dead_end" x="400.00" y="-830.00" incLanes="0b_0" intLanes="" shape="400.00,-830.00 396.80,-830.00 400.00,-830.00"/>

    <connection from="0a" to="1a" fromLane="0" toLane="0" dir="s" state="M"/>
    <connection from="0a" to="0b" fromLane="0" toLane="0" dir="t" state="m"/>
    <connection from="1a" to="4" fromLane="0" toLane="0" dir="L" state="M"/>
    <connection from="1a" to="2a" fromLane="0" toLane="0" dir="l" state="M"/>
    <connection from="1a" to="1b" fromLane="0" toLane="0" dir="t" state="m"/>
    <connection from="1b" to="0b" fromLane="0" toLane="0" dir="s" state="M"/>
    <connection from="2a" to="3a" fromLane="0" toLane="0" dir="l" state="M"/>
    <connection from="2b" to="1b" fromLane="0" toLane="0" dir="r" state="M"/>
    <connection from="2b" to="4" fromLane="0" toLane="0" dir="l" state="m"/>
    <connection from="3a" to="3b" fromLane="0" toLane="0" dir="t" state="M"/>
    <connection from="3b" to="2b" fromLane="0" toLane="0" dir="r" state="M"/>
    <connection from="4" to="5" fromLane="0" toLane="0" dir="l" state="M"/>
    <connection from="5" to="6" fromLane="0" toLane="0" dir="l" state="M"/>
    <connection from="6" to="7" fromLane="0" toLane="0" dir="l" state="M"/>
    <connection from="7" to="8" fromLane="0" toLane="0" dir="l" state="M"/>
    <connection from="8" to="0b" fromLane="0" toLane="0" dir="r" state="m"/>

</net>
