<routes>
  <vTypeDistribution id="passenger">
    <vType vClass="passenger"  id="car1"  maneuverAngleTimes="10 3.0 4.0,80 1.6 11.0,110 11.0 2.0,170 8.1 3.0,181 3.0 4.0" personCapacity="4" latAlignment="center" sigma="0.25" probability=".20" tau="1.5" speedDev="0.1" guiShape="passenger"/>
    <vType vClass="passenger"  id="car2"  maneuverAngleTimes="10 3.0 4.0,80 1.6 11.0,110 11.0 2.0,170 8.1 3.0,181 3.0 4.0" personCapacity="4" latAlignment="center" sigma="0.30" probability=".20" tau="1.5" speedDev="0.1" guiShape="passenger/sedan"/>
    <vType vClass="passenger"  id="car3"  maneuverAngleTimes="10 3.0 4.0,80 1.6 11.0,110 11.0 2.0,170 8.1 3.0,181 3.0 4.0" personCapacity="4" latAlignment="center" sigma="0.35" probability=".20" tau="1.5" speedDev="0.1" guiShape="passenger/hatchback"/>
    <vType vClass="passenger"  id="car4"  maneuverAngleTimes="10 3.0 4.0,80 1.6 11.0,110 11.0 2.0,170 8.1 3.0,181 3.0 4.0" personCapacity="6" latAlignment="center" sigma="0.40" probability=".20" tau="1.5" speedDev="0.1" guiShape="passenger/wagon"/>
    <vType vClass="passenger"  id="car5"  maneuverAngleTimes="10 3.0 4.0,80 1.6 11.0,110 11.0 2.0,170 8.1 3.0,181 3.0 4.0" personCapacity="6" latAlignment="center" sigma="0.50" probability=".20" tau="1.5" speedDev="0.1" guiShape="passenger/van"/>
    <vType id="reroutingType" type="passenger" length="4.5" accel="3.5" decel="2.2" maxSpeed="8.0" color="1,1,0" sigma="0.5" guiShape="passenger/hatchback">
      <param key="has.rerouting.device" value="true"/>
    </vType>
  </vTypeDistribution>
</routes>
